%%%%%%%%%%%%%%%%%%%%%%%%%%%%%%%%%%%%%%%%%%%%%%%%%%%%%%%%%%%%%%%%%%%%%%%%%%%%%%%%
%                                                                              %
% SU2 configuration file                                                       %
% Case description: (3D) Turbulent Channel Flow Case... testing                %
% Author: Edmond K. Shehadi	                                               %
% Institution: University of Twente                                            %
% Date: 2013.09.30                                                             %
% File Version 4.3.0 "Cardinal"                                                %
%                                                                              %
%%%%%%%%%%%%%%%%%%%%%%%%%%%%%%%%%%%%%%%%%%%%%%%%%%%%%%%%%%%%%%%%%%%%%%%%%%%%%%%%

% ------------- DIRECT, ADJOINT, AND LINEARIZED PROBLEM DEFINITION ------------%
%
% Physical governing equations (EULER, NAVIER_STOKES,
%                               WAVE_EQUATION, HEAT_EQUATION, FEM_ELASTICITY,
%                               POISSON_EQUATION)
PHYSICAL_PROBLEM= FEM_NAVIER_STOKES
%
% Specify turbulence model (NONE, SA)
KIND_TURB_MODEL= NONE
%
% Mathematical problem (DIRECT, CONTINUOUS_ADJOINT)
MATH_PROBLEM= DIRECT
%
% Restart solution (NO, YES)
RESTART_SOL= NO

% -------------------- COMPRESSIBLE FREE-STREAM DEFINITION --------------------%
%
% Mach number (non-dimensional, based on the free-stream values)
MACH_NUMBER= 0.2
%
% Angle of attack (degrees, only for compressible flows)
%AoA= 0.0
%
% Side-slip angle (degrees, only for compressible flows)
%SIDESLIP_ANGLE= 0.0
%
% Free-stream temperature (288.15 K by default)
FREESTREAM_TEMPERATURE= 288.15
%
% Free-stream velocity (1.0 m/s, 1.0 ft/s by default)
%FREESTREAM_VELOCITY= ( 0.1, 0.00, 0.00 )
%
% Reynolds number (non-dimensional, based on the free-stream values)
REYNOLDS_NUMBER= 6000.0
%
% Reynolds length (1 m by default)
REYNOLDS_LENGTH= 1.0

% ----------------------- BODY FORCE DEFINITION -------------------------------%
%
% Apply a body force as a source term (NO, YES)
BODY_FORCE= YES
%
% Vector of body force values (BodyForce_X, BodyForce_Y, BodyForce_Z)
BODY_FORCE_VECTOR= ( 1.0, 0.0, 0.0 )

% -------------------- BOUNDARY CONDITION DEFINITION --------------------------%
%
% Navier-Stokes (no-slip), constant heat flux wall  marker(s) (NONE = no marker)
% Format: ( marker name, constant heat flux (J/m^2), ... )
MARKER_HEATFLUX= (North, 0.0, South, 0.0 )
%
% Periodic boundary marker(s) (NONE = no marker)
% Format: ( periodic marker, donor marker, rotation_center_x, rotation_center_y,
% rotation_center_z, rotation_angle_x-axis, rotation_angle_y-axis,
% rotation_angle_z-axis, translation_x, translation_y, translation_z, ... )
MARKER_PERIODIC= ( West, East, 0.0, 0.0, 0.0, 0.0, 0.0, 0.0, 9.0, 0.0, 0.0, Back, Front, 0.0, 0.0, 0.0, 0.0, 0.0, 0.0, 0.0, 0.0, 4.0)
%
% Kind of adaptation (needed to create the initial periodic mesh)
KIND_ADAPT= PERIODIC
%
% Marker(s) of the surface to be plotted or designed
MARKER_PLOTTING= ( South )
%
% Marker(s) of the surface where the functional (Cd, Cl, etc.) will be evaluated
MARKER_MONITORING= ( North, South )

% ------------- COMMON PARAMETERS TO DEFINE THE NUMERICAL METHOD --------------%
%
% Runge-Kutta alpha coefficients
RK_ALPHA_COEFF= ( 0.66667, 0.66667, 1.000000 )

% ------------------------- UNSTEADY SIMULATION -------------------------------%
%
% Unsteady simulation (NO, TIME_STEPPING, DUAL_TIME_STEPPING-1ST_ORDER,
%                      DUAL_TIME_STEPPING-2ND_ORDER, TIME_SPECTRAL)
UNSTEADY_SIMULATION= TIME_STEPPING
%
% Time Step for time accurate simulations (s) -- Only used when UNST_CFL_NUMBER = 0.0
%UNST_TIMESTEP= 1e-5
%
% Total Physical Time for dual time stepping simulations (s)
UNST_TIME= 50.0
%
% Unsteady Courant-Friedrichs-Lewy number of the finest grid
UNST_CFL_NUMBER= 0.1

% ------------- COMMON PARAMETERS TO DEFINE THE NUMERICAL METHOD --------------%
%
% Courant-Friedrichs-Lewy condition of the finest grid
CFL_NUMBER= 0.125
%
% Number of total iterations
EXT_ITER= 1

% ------------------ FEM FLOW NUMERICAL METHOD DEFINITION ----------------------%
%
% Convective numerical method (DG)
NUM_METHOD_FEM_FLOW= DG
%
% Riemann solver used for DG (ROE, LAX-FRIEDRICH, AUSM, AUSMPW+, HLLC, VAN_LEER)
RIEMANN_SOLVER_FEM= ROE
%
% Constant factor applied for quadrature with straight elements (2.0 by default)
QUADRATURE_FACTOR_STRAIGHT_FEM = 2.0
%
% Constant factor applied for quadrature with curved elements (3.0 by default)
QUADRATURE_FACTOR_CURVED_FEM = 3.0
%
% Factor for the symmetrizing terms in the DG FEM discretization (1.0 by default)
THETA_INTERIOR_PENALTY_DG_FEM = 1.0
%
% Time discretization (RUNGE-KUTTA_EXPLICIT)
%TIME_DISCRE_FEM_FLOW= CLASSICAL_RK4_EXPLICIT
TIME_DISCRE_FEM_FLOW= RUNGE-KUTTA_EXPLICIT

% --------------------------- CONVERGENCE PARAMETERS --------------------------%
%
% Convergence criteria (CAUCHY, RESIDUAL)
%
CONV_CRITERIA= RESIDUAL
%
% Residual reduction (order of magnitude with respect to the initial value)
RESIDUAL_REDUCTION= 8
%
% Min value of the residual (log10 of the residual)
RESIDUAL_MINVAL= -15
%
% Start convergence criteria at iteration number
STARTCONV_ITER= 10
%
% Number of elements to apply the criteria
CAUCHY_ELEMS= 100
%
% Epsilon to control the series convergence
CAUCHY_EPS= 1E-6
%
% Function to apply the criteria (LIFT, DRAG, NEARFIELD_PRESS, SENS_GEOMETRY, 
% 	      	    		 SENS_MACH, DELTA_LIFT, DELTA_DRAG)
CAUCHY_FUNC_FLOW= DRAG

% ------------------------- INPUT/OUTPUT INFORMATION --------------------------%
%
% Mesh input file
MESH_FILENAME= referenceGrid.su2
%
% Mesh input file format (SU2, CGNS, NETCDF_ASCII)
MESH_FORMAT= SU2
%
% Mesh output file
MESH_OUT_FILENAME= mesh_out.su2
%
% Restart flow input file
SOLUTION_FLOW_FILENAME= time/restart_flow.dat
%
% Restart adjoint input file
SOLUTION_ADJ_FILENAME= solution_adj.dat
%
% Output file format (PARAVIEW, TECPLOT, STL)
OUTPUT_FORMAT= PARAVIEW 
%
% Output file convergence history (w/o extension) 
CONV_FILENAME= history
%
% Output file restart flow
RESTART_FLOW_FILENAME= time/restart_flow.dat
%
% Output file restart adjoint
RESTART_ADJ_FILENAME= restart_adj.dat
%
% Output file flow (w/o extension) variables
VOLUME_FLOW_FILENAME= processed/flow
%
% Output file adjoint (w/o extension) variables
VOLUME_ADJ_FILENAME= adjoint
%
% Output objective function gradient (using continuous adjoint)
GRAD_OBJFUNC_FILENAME= of_grad.dat
%
% Output file surface flow coefficient (w/o extension)
SURFACE_FLOW_FILENAME= processed/surface_flow
%
% Output file surface adjoint coefficient (w/o extension)
SURFACE_ADJ_FILENAME= surface_adjoint
%
% Writig solution file frequency
WRT_SOL_FREQ= 1
WRT_SOL_FREQ_DUALTIME= 1
%
% Writing convergence history frequency
WRT_CON_FREQ= 1

